         108
   4.50000000       4.50000000       4.50000000    
 Ar   16.4510937       11.1232309       12.7779016    
 Ar   17.2652397       11.0671377       13.5395079    
 Ar   17.2361794       11.8517265       12.7699137    
 Ar   16.5311127       11.7838430       13.5281191    
 Ar   16.4809513       11.1468420       14.3307648    
 Ar   17.3118477       11.1029825       15.0935469    
 Ar   17.2662659       11.8670807       14.3426657    
 Ar   16.5145035       11.9180021       15.0011673    
 Ar   16.5452690       11.1692343       15.7833405    
 Ar   17.2201233       11.1564226       16.5384846    
 Ar   17.2719288       11.8778076       15.8094721    
 Ar   16.4896717       11.8421154       16.5478344    
 Ar   16.5082951       12.5918436       12.7681456    
 Ar   17.1645927       12.6347713       13.5079679    
 Ar   17.2959671       13.3670149       12.7753973    
 Ar   16.5233364       13.3944988       13.5051441    
 Ar   16.4600143       12.6880817       14.2728729    
 Ar   17.2657013       12.6150856       15.0261259    
 Ar   17.2660561       13.3713884       14.2698545    
 Ar   16.5318947       13.4368820       15.0313921    
 Ar   16.4732361       12.6816654       15.7704659    
 Ar   17.2174911       12.6287279       16.4818687    
 Ar   17.2224579       13.4068136       15.7971382    
 Ar   16.5479050       13.4047165       16.5673199    
 Ar   16.5545673       14.1307135       12.7617579    
 Ar   17.2570477       14.0895967       13.5683250    
 Ar   17.2686749       14.8803530       12.8152914    
 Ar   16.5315723       14.8783455       13.5386524    
 Ar   16.4935246       14.1657639       14.3117495    
 Ar   17.3132095       14.0996017       15.0693312    
 Ar   17.2798386       14.8495855       14.2898483    
 Ar   16.4700050       14.8867264       15.0597010    
 Ar   16.5264015       14.1748133       15.7688036    
 Ar   17.2746010       14.1436596       16.5234318    
 Ar   17.2466660       14.9006071       15.7838230    
 Ar   16.5635223       14.9391451       16.5271893    
 Ar   17.9775543       11.1344872       12.7875376    
 Ar   18.7578983       11.0959549       13.5051861    
 Ar   18.7562981       11.8347197       12.8092690    
 Ar   17.9399719       11.8906746       13.5372286    
 Ar   18.0444851       11.0435629       14.2852030    
 Ar   18.7587967       11.1020107       15.0364418    
 Ar   18.7427902       11.8601332       14.2571468    
 Ar   18.0439053       11.8701162       15.0426931    
 Ar   18.0325012       11.0871487       15.8068571    
 Ar   18.8028183       11.1054087       16.5856266    
 Ar   18.8015785       11.8214369       15.7506514    
 Ar   17.9747810       11.8279572       16.5130463    
 Ar   18.0029469       12.6063805       12.7432175    
 Ar   18.7310143       12.6144514       13.5726089    
 Ar   18.7206573       13.3650799       12.7156544    
 Ar   17.9911060       13.2914343       13.5701513    
 Ar   18.0396156       12.6462946       14.3578320    
 Ar   18.7774601       12.6164255       15.0613413    
 Ar   18.7736626       13.3391218       14.2861109    
 Ar   18.0128269       13.3748541       15.0661163    
 Ar   18.0423260       12.6075687       15.8239527    
 Ar   18.7660427       12.6146107       16.5411606    
 Ar   18.7766476       13.3809395       15.8487654    
 Ar   18.0013218       13.3703051       16.5062122    
 Ar   17.9920082       14.1008453       12.8174353    
 Ar   18.6781368       14.0673456       13.5417929    
 Ar   18.7715340       14.8146305       12.7826262    
 Ar   18.0089245       14.8294477       13.5251799    
 Ar   18.0025520       14.0665407       14.2889423    
 Ar   18.7862873       14.1035089       15.0543213    
 Ar   18.7863178       14.8483191       14.2765732    
 Ar   17.9904213       14.8233185       15.0713873    
 Ar   18.0211773       14.1128702       15.7712831    
 Ar   18.7183323       14.1333361       16.4944553    
 Ar   18.7883549       14.8891726       15.7724495    
 Ar   18.0049763       14.8346672       16.5853348    
 Ar   19.5270271       11.1012230       12.7901564    
 Ar   20.2674751       11.0657558       13.5244818    
 Ar   20.2142067       11.8889990       12.8289804    
 Ar   19.5626450       11.8627682       13.5774946    
 Ar   19.5291920       11.1434078       14.2938213    
 Ar   20.2522564       11.1426773       15.0894203    
 Ar   20.2980099       11.8843794       14.2568188    
 Ar   19.5268459       11.9027319       15.0321350    
 Ar   19.5153122       11.1479092       15.8401947    
 Ar   20.3087826       11.1012783       16.5129604    
 Ar   20.2721195       11.8477926       15.7800894    
 Ar   19.5593815       11.9047737       16.4935055    
 Ar   19.5378704       12.6319151       12.7871046    
 Ar   20.2741947       12.6577530       13.5394106    
 Ar   20.2761745       13.3225765       12.7717409    
 Ar   19.4510822       13.3747425       13.5118542    
 Ar   19.5215702       12.6379251       14.2646255    
 Ar   20.2330627       12.6635342       15.0080347    
 Ar   20.2572670       13.3927994       14.2912321    
 Ar   19.5337410       13.4152908       15.0254478    
 Ar   19.5218468       12.6268854       15.7898865    
 Ar   20.2778492       12.6056871       16.5416069    
 Ar   20.3201790       13.4326973       15.7679739    
 Ar   19.5509415       13.3855839       16.5514965    
 Ar   19.5227470       14.1034918       12.7654104    
 Ar   20.2789879       14.1177092       13.5295105    
 Ar   20.2231941       14.8984070       12.7877502    
 Ar   19.5084076       14.7897816       13.5505800    
 Ar   19.5321236       14.1502075       14.2917900    
 Ar   20.2613010       14.1353626       15.0327625    
 Ar   20.2380562       14.9422960       14.3213825    
 Ar   19.4755745       14.8606386       15.0667515    
 Ar   19.5322456       14.0937729       15.7518158    
 Ar   20.3057976       14.2024021       16.5352383    
 Ar   20.1986904       14.8574896       15.8165331    
 Ar   19.5049572       14.8465767       16.5546589    
